data_image0
_chemical_formula_structural       C2N2CNH4Zn2C2N2CNH4C2N2CNH4Zn2C2N2CNH4O2CO2CO2CO2C
_chemical_formula_sum              "C16 N12 H16 Zn4 O8"
_cell_length_a       8.775462411472557
_cell_length_b       7.638379895281829
_cell_length_c       13.038300106641938
_cell_angle_alpha    90.00067689462902
_cell_angle_beta     131.32259152861363
_cell_angle_gamma    90.00194815815456

_space_group_name_H-M_alt    "P 1"
_space_group_IT_number       1

loop_
  _space_group_symop_operation_xyz
  'x, y, z'

loop_
  _atom_site_type_symbol
  _atom_site_label
  _atom_site_symmetry_multiplicity
  _atom_site_fract_x
  _atom_site_fract_y
  _atom_site_fract_z
  _atom_site_occupancy
  C   C1        1.0  0.5882896984878512  0.9729793112590442  0.9602447163220144  1.0000
  C   C2        1.0  0.3719188593083952  0.9651375670961925  0.8960798113007401  1.0000
  N   N1        1.0  0.2153656822979623  0.004195141535482838  0.7638961618145256  1.0000
  N   N2        1.0  0.04137259228908263  0.9876791672652435  0.7442661838234764  1.0000
  C   C3        1.0  0.1025268995824864  0.9361236656647037  0.865041308337345  1.0000
  N   N3        1.0  0.30464975596362986  0.9183464597412937  0.9603605219737917  1.0000
  H   H1        1.0  0.6119237458555609  0.9053764855730847  0.897371156796778  1.0000
  H   H2        1.0  0.6820288325653283  0.9123435314961658  0.06112353632331491  1.0000
  H   H3        1.0  0.6424995526002308  0.10811477959641125  0.9750740583151635  1.0000
  H   H4        1.0  0.0009996720862202046  0.9121950170866797  0.884245772789782  1.0000
  Zn  Zn1       1.0  0.2593498498787596  0.5687886642165945  0.0612049953965661  1.0000
  Zn  Zn2       1.0  0.7166200442813216  0.4906851406593667  0.11563011921355912  1.0000
  C   C4        1.0  0.38784196713817976  0.08582973737724586  0.216685354306673  1.0000
  C   C5        1.0  0.6042030606230249  0.09377762386841561  0.2808008133294698  1.0000
  N   N4        1.0  0.760812098364141  0.054810372708463104  0.41300283213509376  1.0000
  N   N5        1.0  0.9348135694457893  0.07164844128747842  0.43266605243444556  1.0000
  C   C6        1.0  0.8736207558861449  0.12333061234000424  0.3119098067944222  1.0000
  N   N6        1.0  0.6714443509174113  0.1406692486486357  0.2165229894640641  1.0000
  H   H5        1.0  0.3644213341085112  0.15266160258731695  0.2799208444595249  1.0000
  H   H6        1.0  0.33357940290379906  0.9506280080635621  0.20138383351317563  1.0000
  H   H7        1.0  0.2939848216934792  0.14716019467593977  0.11603530860365813  1.0000
  H   H8        1.0  0.9751994410494728  0.14779601579194876  0.2928165448625079  1.0000
  C   C7        1.0  0.8872228609204128  0.4728273802157429  0.7168119038519263  1.0000
  C   C8        1.0  0.10359117483499798  0.4650654560409583  0.7808688032064083  1.0000
  N   N7        1.0  0.2604160872240915  0.5040882813974994  0.91303203963784  1.0000
  N   N8        1.0  0.43418979438724126  0.4877262199858193  0.9323744769810385  1.0000
  C   C9        1.0  0.37260098530230173  0.4365050711319594  0.8114144502575907  1.0000
  N   N9        1.0  0.17049564035797024  0.418556384031922  0.7163159658727606  1.0000
  H   H9        1.0  0.8637456930214022  0.40581714848642586  0.7799645698931935  1.0000
  H   H10       1.0  0.793521784647291  0.41154723811711846  0.6161305334286845  1.0000
  H   H11       1.0  0.8326982724080535  0.6079671482668207  0.7013781516926443  1.0000
  H   H12       1.0  0.4737845585889741  0.41296912338778263  0.7918881828058655  1.0000
  Zn  Zn3       1.0  0.21710182861043104  0.06835005715003081  0.6159307708037521  1.0000
  Zn  Zn4       1.0  0.7590419057761619  0.9906258274609613  0.5609494629752148  1.0000
  C   C10       1.0  0.08845455823259885  0.5865346783547791  0.45975586060792906  1.0000
  C   C11       1.0  0.8722203120422629  0.5943529098387976  0.3958646125990833  1.0000
  N   N10       1.0  0.7154313147568953  0.5551729443297424  0.263752726937204  1.0000
  N   N11       1.0  0.5416882605240922  0.571534377982217  0.24442913716056847  1.0000
  C   C12       1.0  0.6032762795206846  0.6229416951637111  0.36536087827132824  1.0000
  N   N12       1.0  0.8053874677606516  0.6408422795126122  0.46044852860036395  1.0000
  H   H13       1.0  0.11187676847984157  0.6542588611761354  0.3968191441271749  1.0000
  H   H14       1.0  0.14226372516011734  0.4513148856509847  0.4742880456532972  1.0000
  H   H15       1.0  0.18254252681600097  0.6469421016260495  0.5607371022491452  1.0000
  H   H16       1.0  0.5022217411748927  0.6467540331101024  0.3849681802323342  1.0000
  O   O1        1.0  0.570882733433955  0.1854196724069419  0.5353591016404458  1.0000
  O   O2        1.0  0.3699210460915522  0.21999873994293206  0.5849803386841781  1.0000
  C   C13       1.0  0.47851691695582044  0.12877323193332832  0.5724544395003366  1.0000
  O   O3        1.0  0.4059922864675622  0.8737637936072415  0.6422428007664445  1.0000
  O   O4        1.0  0.606241925093924  0.8391054203810124  0.5920969724139487  1.0000
  C   C14       1.0  0.4979894593687285  0.9304295804145467  0.604876251280983  1.0000
  O   O5        1.0  0.8704840181879632  0.339312063309525  0.08540880931728492  1.0000
  O   O6        1.0  0.0714665222743226  0.3738820724075209  0.03584450150436934  1.0000
  C   C15       1.0  0.9789854837058722  0.4306201099569688  0.07282880565536802  1.0000
  O   O7        1.0  0.10682715622420713  0.7202209212235816  0.09255387626069056  1.0000
  O   O8        1.0  0.9050564832675719  0.6858061951999225  0.14154187005366398  1.0000
  C   C16       1.0  0.9979599117798906  0.6290537106454689  0.10487942873462804  1.0000
